REMARK  6 active torsions:
REMARK  status: ('A' for Active; 'I' for Inactive)
REMARK    1  A    between atoms: C3_3  and  C7_7 
REMARK    2  A    between atoms: C7_7  and  C8_8 
REMARK    3  A    between atoms: C8_8  and  C11_9 
REMARK    4  A    between atoms: C11_9  and  N14_10 
REMARK    5  A    between atoms: N14_10  and  O22_11 
REMARK    6  A    between atoms: N14_10  and  C24_12 
ROOT
ATOM      1  C7  SB7 A 501      44.931   5.843  13.805  1.00  0.00     0.040 C 
ENDROOT
BRANCH   1   2
ATOM      2  C3  SB7 A 501      45.930   6.825  14.361  1.00  0.00    -0.058 A 
ATOM      3  C2  SB7 A 501      45.757   8.202  14.165  1.00  0.00     0.007 A 
ATOM      4  C1  SB7 A 501      46.674   9.113  14.692  1.00  0.00     0.001 A 
ATOM      5  C6  SB7 A 501      47.769   8.657  15.424  1.00  0.00     0.000 A 
ATOM      6  C5  SB7 A 501      47.947   7.291  15.630  1.00  0.00     0.001 A 
ATOM      7  C4  SB7 A 501      47.033   6.378  15.102  1.00  0.00     0.007 A 
ENDBRANCH   1   2
BRANCH   1   8
ATOM      8  C8  SB7 A 501      43.939   5.375  14.870  1.00  0.00     0.027 C 
BRANCH   8   9
ATOM      9  C11 SB7 A 501      42.899   4.430  14.269  1.00  0.00     0.159 C 
BRANCH   9  10
ATOM     10  N14 SB7 A 501      41.955   3.932  15.257  1.00  0.00    -0.236 N 
BRANCH  10  11
ATOM     11  O22 SB7 A 501      41.063   4.941  15.700  1.00  0.00    -0.285 OA
ATOM     12  H   SB7 A 501      40.840   4.639  16.608  1.00  0.00     0.245 HD
ENDBRANCH  10  11
BRANCH  10  13
ATOM     13  C24 SB7 A 501      42.283   3.002  16.217  1.00  0.00     0.576 C 
ATOM     14  O25 SB7 A 501      41.721   2.910  17.302  1.00  0.00    -0.481 OA
ENDBRANCH  10  13
ENDBRANCH   9  10
ENDBRANCH   8   9
ENDBRANCH   1   8
TORSDOF 6
