@<TRIPOS>MOLECULE
*****
 29 29 0 0 0
SMALL
GASTEIGER

@<TRIPOS>ATOM
      1 C          -5.9489  -14.3757   -0.6882 C.3   501  IXO501     -0.0409
      2 N          -5.2301  -13.7105   -1.8551 N.4   501  IXO501      0.2457
      3 C          -5.1291  -14.7034   -3.0053 C.3   501  IXO501     -0.0409
      4 C          -3.8296  -13.3113   -1.4012 C.3   501  IXO501     -0.0409
      5 C          -6.0466  -12.4785   -2.2828 C.3   501  IXO501      0.0321
      6 C          -5.3404  -11.6861   -3.2908 C.1   501  IXO501     -0.0494
      7 C          -4.6988  -11.0324   -4.0678 C.1   501  IXO501     -0.0562
      8 C          -3.8330  -10.2363   -4.9569 C.3   501  IXO501      0.1518
      9 O          -2.7646  -11.0774   -5.3912 O.3   501  IXO501     -0.4614
     10 C          -1.7837  -10.4247   -6.0540 C.ar  501  IXO501      0.2554
     11 N          -1.7597   -9.0935   -6.1358 N.ar  501  IXO501     -0.0401
     12 O          -0.6012   -8.7997   -6.8431 O.2   501  IXO501     -0.3595
     13 C           0.0317   -9.9574   -7.1655 C.ar  501  IXO501      0.1279
     14 C          -0.6840  -11.0240   -6.6856 C.ar  501  IXO501      0.0404
     15 H          -5.9910  -13.6656    0.1434 H     501  IXO501      0.0778
     16 H          -6.9577  -14.6491   -1.0109 H     501  IXO501      0.0778
     17 H          -5.3871  -15.2680   -0.3958 H     501  IXO501      0.0778
     18 H          -4.5843  -15.5842   -2.6516 H     501  IXO501      0.0778
     19 H          -4.5891  -14.2399   -3.8352 H     501  IXO501      0.0778
     20 H          -6.1414  -14.9829   -3.3123 H     501  IXO501      0.0778
     21 H          -3.3413  -14.1941   -0.9770 H     501  IXO501      0.0778
     22 H          -3.9205  -12.5261   -0.6451 H     501  IXO501      0.0778
     23 H          -3.2562  -12.9590   -2.2631 H     501  IXO501      0.0778
     24 H          -6.2220  -11.8807   -1.3812 H     501  IXO501      0.0960
     25 H          -7.0107  -12.8402   -2.6572 H     501  IXO501      0.0960
     26 H          -3.4603   -9.3800   -4.3808 H     501  IXO501      0.0837
     27 H          -4.4061   -9.8811   -5.8214 H     501  IXO501      0.0837
     28 H           0.9528   -9.8470   -7.7193 H       1  LIG1        0.1058
     29 H          -0.4438  -12.0712   -6.7761 H       1  LIG1        0.0703
@<TRIPOS>BOND
     1     1     2    1
     2     2     3    1
     3     2     4    1
     4     2     5    1
     5     5     6    1
     6     6     7    3
     7     7     8    1
     8     8     9    1
     9     9    10    1
    10    10    11   ar
    11    10    14   ar
    12    11    12   ar
    13    12    13   ar
    14    13    14   ar
    15     1    15    1
    16     1    16    1
    17     1    17    1
    18     3    18    1
    19     3    19    1
    20     3    20    1
    21     4    21    1
    22     4    22    1
    23     4    23    1
    24     5    24    1
    25     5    25    1
    26     8    26    1
    27     8    27    1
    28    13    28    1
    29    14    29    1
