@<TRIPOS>MOLECULE
*****
 53 56 0 0 0
SMALL
GASTEIGER

@<TRIPOS>ATOM
      1 Cl         -5.7542   -9.8495  -15.9317 Cl    502  2CU502     -0.0777
      2 C           0.2818  -10.8196  -23.1753 C.3   502  2CU502     -0.0135
      3 N          -0.2586  -10.2448  -21.9449 N.4   502  2CU502      0.3359
      4 C           0.7373  -10.3252  -20.8578 C.3   502  2CU502      0.0135
      5 C           0.2101   -9.7258  -19.5448 C.3   502  2CU502      0.0566
      6 N          -1.1096  -10.2283  -19.1523 N.am  502  2CU502     -0.2885
      7 C          -2.0851  -10.3473  -20.2406 C.3   502  2CU502      0.0566
      8 C          -1.4820  -10.9543  -21.5235 C.3   502  2CU502      0.0135
      9 C          -1.4627  -10.0684  -17.8158 C.2   502  2CU502      0.2536
     10 O          -0.6196   -9.8460  -16.9409 O.2   502  2CU502     -0.2719
     11 C          -2.9490  -10.0593  -17.4439 C.3   502  2CU502      0.1670
     12 O          -3.6204  -11.3078  -17.5262 O.3   502  2CU502     -0.4659
     13 C          -3.9096  -11.8305  -16.2874 C.ar  502  2CU502      0.2354
     14 C          -4.8339  -11.2347  -15.4206 C.ar  502  2CU502      0.1059
     15 C          -5.0622  -11.8033  -14.1478 C.ar  502  2CU502     -0.0155
     16 C          -5.9243  -11.0976  -13.1339 C.3   502  2CU502     -0.0375
     17 C          -4.4736  -13.0832  -13.9055 C.ar  502  2CU502      0.0336
     18 C          -4.5814  -14.0460  -12.8322 C.ar  502  2CU502      0.0537
     19 N          -5.3675  -13.8912  -11.7393 N.pl3 502  2CU502     -0.3564
     20 C          -3.8310  -15.1943  -13.0327 C.ar  502  2CU502      0.0970
     21 S          -2.9532  -15.0988  -14.4971 S.2   502  2CU502     -0.0621
     22 C          -3.6156  -13.5797  -14.8840 C.ar  502  2CU502      0.1148
     23 N          -3.2836  -12.9956  -16.0519 N.ar  502  2CU502     -0.2043
     24 C          -3.7806  -16.3792  -12.1773 C.2   502  2CU502      0.2528
     25 O          -4.4497  -16.4804  -11.1470 O.2   502  2CU502     -0.2696
     26 N          -2.9515  -17.4073  -12.5992 N.am  502  2CU502     -0.3080
     27 C          -2.8460  -18.6561  -11.9125 C.3   502  2CU502      0.0236
     28 C          -3.1392  -19.9443  -12.6314 C.3   502  2CU502     -0.0328
     29 C          -1.7318  -19.6153  -12.2282 C.3   502  2CU502     -0.0328
     30 H           1.1660  -10.2599  -23.5008 H     502  2CU502      0.0793
     31 H          -0.4505  -10.7488  -23.9869 H     502  2CU502      0.0793
     32 H           0.5647  -11.8715  -23.0556 H     502  2CU502      0.0793
     33 H           1.6436   -9.7776  -21.1438 H     502  2CU502      0.0846
     34 H           1.0269  -11.3697  -20.6821 H     502  2CU502      0.0846
     35 H           0.1117   -8.6372  -19.6488 H     502  2CU502      0.0518
     36 H           0.9376   -9.9085  -18.7463 H     502  2CU502      0.0518
     37 H          -2.4690   -9.3404  -20.4446 H     502  2CU502      0.0518
     38 H          -2.9273  -10.9654  -19.9188 H     502  2CU502      0.0518
     39 H          -1.2640  -12.0169  -21.3500 H     502  2CU502      0.0846
     40 H          -2.2367  -10.9003  -22.3172 H     502  2CU502      0.0846
     41 H          -3.4610   -9.3604  -18.1162 H     502  2CU502      0.0795
     42 H          -3.0039   -9.5999  -16.4475 H     502  2CU502      0.0795
     43 H          -5.8766  -10.0095  -13.2397 H     502  2CU502      0.0278
     44 H          -5.5683  -11.2929  -12.1183 H     502  2CU502      0.0278
     45 H          -6.9641  -11.4229  -13.2259 H     502  2CU502      0.0278
     46 H          -6.1749  -13.2789  -11.7262 H     502  2CU502      0.1424
     47 H          -5.4702  -14.6751  -11.0846 H     502  2CU502      0.1424
     48 H          -2.4397  -17.2758  -13.4632 H     502  2CU502      0.1493
     49 H          -3.1467  -18.6055  -10.8666 H     502  2CU502      0.0498
     50 H          -3.6606  -20.7191  -12.0806 H     502  2CU502      0.0284
     51 H          -3.3905  -19.9063  -13.6846 H     502  2CU502      0.0284
     52 H          -1.2979  -20.1690  -11.4029 H     502  2CU502      0.0284
     53 H          -1.0252  -19.3581  -13.0074 H     502  2CU502      0.0284
@<TRIPOS>BOND
     1     1    14    1
     2     2     3    1
     3     3     4    1
     4     3     8    1
     5     4     5    1
     6     5     6    1
     7     6     7    1
     8     6     9   am
     9     7     8    1
    10     9    10    2
    11     9    11    1
    12    11    12    1
    13    12    13    1
    14    13    14   ar
    15    13    23   ar
    16    14    15   ar
    17    15    16    1
    18    15    17   ar
    19    17    18   ar
    20    17    22   ar
    21    18    19    1
    22    18    20   ar
    23    20    21   ar
    24    20    24    1
    25    21    22   ar
    26    22    23   ar
    27    24    25    2
    28    24    26   am
    29    26    27    1
    30    27    28    1
    31    27    29    1
    32    28    29    1
    33     2    30    1
    34     2    31    1
    35     2    32    1
    36     4    33    1
    37     4    34    1
    38     5    35    1
    39     5    36    1
    40     7    37    1
    41     7    38    1
    42     8    39    1
    43     8    40    1
    44    11    41    1
    45    11    42    1
    46    16    43    1
    47    16    44    1
    48    16    45    1
    49    19    46    1
    50    19    47    1
    51    26    48    1
    52    27    49    1
    53    28    50    1
    54    28    51    1
    55    29    52    1
    56    29    53    1
